/*---------------------------------------------------------------------------*\
  | =========                 |                                                 |
  | \\      /  F ield         | OpenFOAM: The Open Source CFD Toolbox           |
  |  \\    /   O peration     | Version:  1.4                                   |
  |   \\  /    A nd           | Web:      http://www.openfoam.org               |
  |    \\/     M anipulation  |                                                 |
  \*---------------------------------------------------------------------------*/

FoamFile
{
    version 2.0;
    format ascii;
    class volVectorField;
    object A;
}

dimensions [1 1 -2 0 0 -1 0];
internalField uniform (0 0 0);

boundaryField
{
    airleft
    {
        type fixedValue;
        value uniform (0 0 0);
    }

    airright
    {
        type fixedValue;
        value uniform (0 0 0);
    }

    airdown
    {
        type fixedValue;
        value uniform (0 0 0);
    }

    airup
    {
        type fixedValue;
        value uniform (0 0 0);
    }

    rod
    {
        type zeroGradient;
    }

    backandfront
    {
        type zeroGradient;
    }
}
