/*---------------------------------------------------------------------------*\
| =========                 |                                                 |
| \\      /  F ield         | OpenFOAM: The Open Source CFD Toolbox           |
|  \\    /   O peration     | Version:  1.4                                   |
|   \\  /    A nd           | Web:      http://www.openfoam.org               |
|    \\/     M anipulation  |                                                 |
\*---------------------------------------------------------------------------*/

FoamFile
{
  version 2.0;
  format ascii;
  class volVectorField;
  object J;
}

dimensions [1 1 -2 0 0 -1 0];
internalField uniform (0 0 0);

boundaryField
{
 airleft
 {
   type zeroGradient;
 }

 airright
 {
   type zeroGradient;
 }

 airdown
 {
   type zeroGradient;
 }

 airup
 {
   type zeroGradient;
 }

 rod
 {
   type fixedValue;
   value uniform (0 0 301500);
 }

 backandfront
 {
   type zeroGradient;
 }
}
