/*--------------------------------*- C++ -*----------------------------------*\
| =========                 |                                                 |
| \\      /  F ield         | OpenFOAM: The Open Source CFD Toolbox           |
|  \\    /   O peration     | Version:  1.5.x                                 |
|   \\  /    A nd           | Web:      http://www.OpenFOAM.org               |
|    \\/     M anipulation  |                                                 |
\*---------------------------------------------------------------------------*/

FoamFile
{
    version  2.0;
    format   ascii;
    class    volScalarField;
    location "0";
    object   sigma;
}

dimensions    [-1 -3 3 0 2 0 0];
internalField uniform 0;

boundaryField
{
    airleft
    {
        type fixedValue;
        value uniform 1e-5;
    }

    airright
    {
        type fixedValue;
        value uniform 1e-5;
    }

    airdown
    {
        type fixedValue;
        value uniform 1e-5;
    }

    airup
    {
        type fixedValue;
        value uniform 1e-5;
    }

    rod
    {
        type fixedValue;
        value uniform 2700;
    }

    backandfront
    {
        type fixedValue;
        value uniform 1e-5;
    }
}
