/*---------------------------------------------------------------------------*\
| =========                 |                                                 |
| \\      /  F ield         | OpenFOAM: The Open Source CFD Toolbox           |
|  \\    /   O peration     | Version:  1.4                                   |
|   \\  /    A nd           | Web:      http://www.openfoam.org               |
|    \\/     M anipulation  |                                                 |
\*---------------------------------------------------------------------------*/

FoamFile
{
    version 2.0;
    format ascii;

    root "/home/alex/OpenFOAM/alex-1.4/run/simulationTIG/mhdFoamTIG/rodeFoam";
    case ".";
    instance "0";
    local "";

    class volScalarField;
    object sigma;
}

// * * * * * * * * * * * * * * * * * * * * * * * * * * * * * * * * * * * * * //

dimensions      [-1 -3 3 0 2 0 0];

internalField   uniform 0;

boundaryField
{
    leftWall
    {
        type            fixedValue;
        value           uniform 2700;
    }
    rightWall
    {
        type            fixedValue;
        value           uniform 2700;
    }
    atmosphereTop
    {
        type            fixedValue;
        value           uniform  0.1 //20;
    }
    atmosphereRight
    {
        type            fixedValue;
        value           uniform 0.1;
    }
    atmosphereLeft
    {
        type            fixedValue;
        value           uniform 0.1;
    }
    axis
    {
        type            symmetryPlane;
    }
    Back
    {
        type            wedge;
    }
    front
    {
        type            wedge;
    }
}


// ************************************************************************* //
