/*----------------------------------------------------*\
| \\      /  F ield		OpenFOAM: The Open Source CFD Toolbox
|  \\    /  O peration	 Version: 1.5
|   \\  / A nd
|	 \\/ M anipulation Web:http://www.openfoam.org
\*----------------------------------------------------*/

FoamFile
{
	version 2.0;
	format ascii;
	class dictionary;
	object setFieldsDict;
}

// * * * * * * * * * * * * * * * * * * * * * * * * * * * * * * * * * * * * * //
defaultFieldValues
(
	volVectorFieldValue J (0 0 0) // air box surrounding
);

regions
(
	boxToCell
	{
		box (-0.21 -0.21 -0.01) (0.21 0.21 6.1);

		fieldValues
		(
			volVectorFieldValue J (0 0 301500) // copper conductor
		);
	}
);
// ***************************************************************** //