/*---------------------------------------------------------------------------*\
| =========                 |                                                 |
| \\      /  F ield         | OpenFOAM: The Open Source CFD Toolbox           |
|  \\    /   O peration     | Version:  1.5                                   |
|   \\  /    A nd           | Web:      http://www.openfoam.org               |
|    \\/     M anipulation  |                                                 |
\*---------------------------------------------------------------------------*/

FoamFile
{
    version         2.0;
    format          ascii;
    class           dictionary;
    object          setFieldsDict;
}

// * * * * * * * * * * * * * * * * * * * * * * * * * * * * * * * * * * * * * //

defaultFieldValues
(
    volScalarFieldValue sigma 2700  // rod
);

regions
(
    boxToCell
    {
        box (0 9.87e-4 -0.1036e-4) (101e-3  999.9e-4 10.36e-4);

        fieldValues
        (
            volScalarFieldValue sigma 1e-5 // surrounding
        );
    }
);


// ************************************************************************* //
