	/*---------------------------------------------------------------------------*\
| =========                 |                                                 |
| \\      /  F ield         | OpenFOAM: The Open Source CFD Toolbox           |
|  \\    /   O peration     | Version:  1.5                                   |
|   \\  /    A nd           | Web:      http://www.openfoam.org               |
|    \\/     M anipulation  |                                                 |
\*---------------------------------------------------------------------------*/

FoamFile
{
	version         2.0;
	format          ascii;
	class           dictionary;
	object          blockMeshDict;
}

convertToMeters 1;

vertices
(
 (-0.2 0.2 0) //0
 (0.2 0.2 0) //1
 (0.2 -0.2 0) //2
 (-0.2 -0.2 0) //3
 (-2 2 0) //4
 (2 2 0) //5
 (2 -2 0) //6
 (-2 -2 0) //7
 (-2 -0.2 0) //8
 (-2 0.2 0) //9
 (2 0.2 0) //10
 (2 -0.2 0) //11
 (-0.2 2 0) //12
 (0.2 2 0) //13
 (0.2 -2 0) //14
 (-0.2 -2 0) //15
 (-0.2 0.2 6) //16
 (0.2 0.2 6) //17
 (0.2 -0.2 6) //18
 (-0.2 -0.2 6) //19
 (-2 2 6) //20
 (2 2 6) //21
 (2 -2 6) //22
 (-2 -2 6) //23
 (-2 -0.2 6) //24
 (-2 0.2 6) //25
 (2 0.2 6) //26
 (2 -0.2 6) //27
 (-0.2 2 6) //28
 (0.2 2 6) //29
 (0.2 -2 6) //30
 (-0.2 -2 6) //31
 );

blocks
(
 hex (0 3 2 1 16 19 18 17) (20 20 10) simpleGrading (1 1 1) //0
 hex (1 2 11 10 17 18 27 26) (20 10 10) simpleGrading (1 1 1) //1
 hex (2 14 6 11 18 30 22 27) (10 10 10) simpleGrading (1 1 1) //2
 hex (3 15 14 2 19 31 30 18) (10 20 10) simpleGrading (1 1 1) //3
 hex (8 7 15 3 24 23 31 19) (10 10 10) simpleGrading (1 1 1) //4
 hex (9 8 3 0 25 24 19 16) (20 10 10) simpleGrading (1 1 1) //5
 hex (4 9 0 12 20 25 16 28) (10 10 10) simpleGrading (1 1 1) //6
 hex (12 0 1 13 28 16 17 29) (10 20 10) simpleGrading (1 1 1) //7
 hex (13 1 10 5 29 17 26 21) (10 10 10) simpleGrading (1 1 1) //8
 );

edges
(
);

patches
(
 patch airleft //patch 0
 (
 	(8 7 23 24) //face 0
 	(9 8 24 25) //face 1
 	(4 9 25 20) //2
 )

 patch airright // patch 1
 (
 	(21 26 10 5) //3
 	(26 27 11 10) //4
 	(27 22 6 11) //5
 )

 patch airdown //patch 2
 (
	(4 20 28 12) //6
 	(12 28 29 13) //7
 	(13 29 21 5) //8
 )

 patch airup //patch 3
 (
	(14 6 22 30) //9
 	(15 14 30 31) //10
 	(7 15 31 23) //11
 )

 patch rod //patch 4
 (
 	(0 1 2 3) //12
 	(16 19 18 17) //13
 )

 patch backandfront //patch 5
 (
	(1 10 11 2) //0
 	(2 11 6 14) //1
 	(3 2 14 15) //2
 	(8 3 15 7) //3
 	(9 0 3 8) //4
	(4 12 0 9) //5
	(12 13 1 0) //6
	(13 5 10 1) //7
	(18 27 26 17) //8
	(30 22 27 18) //9
	(31 30 18 19) //10
	(23 31 19 24) //11
	(24 19 16 25) //12
	(25 16 28 20) //13
	(16 17 29 28) //14
	(17 26 21 29) //15
 )
);

mergePatchPairs
(
);
