/*---------------------------------------------------------------------------*\
| =========                 |                                                 |
| \\      /  F ield         | OpenFOAM: The Open Source CFD Toolbox           |
|  \\    /   O peration     | Version:  1.4                                   |
|   \\  /    A nd           | Web:      http://www.openfoam.org               |
|    \\/     M anipulation  |                                                 |
\*---------------------------------------------------------------------------*/

// Field Dictionary

FoamFile
{
    version         2.0;
    format          ascii;
    class           volVectorField;
    object          A;
}

// * * * * * * * * * * * * * * * * * * * * * * * * * * * * * * * * * * * * * //


dimensions      [1 1 -2 0 0 -1 0];

internalField   uniform (0 0 0);

boundaryField
{
    leftWall        
    {
       type            zeroGradient;
     
    }

    rightWall       
    {
         type            zeroGradient; 
      
    }

    atmosphereTop       
    {
   
   //   type            zeroGradient;  
        type            fixedValue;
        value           uniform (0 0 0); 

     }

atmosphereRight 
{
type            zeroGradient; 

}
 
atmosphereLeft
 
{
   type            zeroGradient; 
}

    axis            
    {
        type            symmetryPlane;
    }

    Back            
    {
        type            wedge;
    }

    front           
    {
        type            wedge;
    }
}


// ************************************************************************* //
