/*---------------------------------------------------------------------------*\
| =========                 |                                                 |
| \\      /  F ield         | OpenFOAM: The Open Source CFD Toolbox           |
|  \\    /   O peration     | Version:  1.4                                   |
|   \\  /    A nd           | Web:      http://www.openfoam.org               |
|    \\/     M anipulation  |                                                 |
\*---------------------------------------------------------------------------*/

// Field Dictionary

FoamFile
{
    version         2.0;
    format          ascii;
    class           volScalarField;
    object          ElPot;
}

// * * * * * * * * * * * * * * * * * * * * * * * * * * * * * * * * * * * * * //


dimensions      [1 2 -3 0 0 -1 0]; // [kg * m^2 /( s^3 A)]

internalField   uniform 0;

boundaryField
{
    leftWall        
    {   
       
	type            fixedValue;
        value           uniform 707; 
      }

    rightWall       
    {
      type            fixedValue;
      value           uniform  0;  
    }

    atmosphereTop     
    {
    
     type            zeroGradient; 
     
    }
   
    atmosphereRight 
   {

type            zeroGradient;  	
    }

  atmosphereLeft
   {
    type            zeroGradient; 
    	
    }
    axis            
    {
        type            symmetryPlane;
    }

    Back            
    {
        type            wedge;
    }

    front           
    {
        type            wedge;
    }
}


// ************************************************************************* //
